*SPEF "1481-1998"
*DESIGN "pit_top"
*DATE "Sat May  4 14:22:30 2024"
*VENDOR "Synopsys, Inc."
*PROGRAM "icc2 /eda/synopsys/icc2/V-2023.12/linux64/nwtn/bin/icc2_exec"
*VERSION "V-2023.12 Nov 23, 2023"
*DESIGN_FLOW "ICC2 SPEF DR"
*DIVIDER /
*DELIMITER :
*BUS_DELIMITER [ ]
*T_UNIT 1 NS
*C_UNIT 1 FF
*R_UNIT 1 OHM
*L_UNIT 1 HENRY

// XY_UNIT 1 UM
// PARASITIC_TECH maxTLU at -40.000 degree

*NAME_MAP
*1 wb_dat_o[15]
*2 wb_dat_o[14]
*3 wb_dat_o[13]
*4 wb_dat_o[12]
*5 wb_dat_o[11]
*6 wb_dat_o[10]
*7 wb_dat_o[9]
*8 wb_dat_o[8]
*9 wb_dat_o[7]
*10 wb_dat_o[6]
*11 wb_dat_o[5]
*12 wb_dat_o[4]
*13 wb_dat_o[3]
*14 wb_dat_o[2]
*15 wb_dat_o[1]
*16 wb_dat_o[0]
*17 wb_ack_o
*18 wb_clk_i
*19 wb_rst_i
*20 arst_i
*21 wb_adr_i[2]
*22 wb_adr_i[1]
*23 wb_adr_i[0]
*24 wb_dat_i[15]
*25 wb_dat_i[14]
*26 wb_dat_i[13]
*27 wb_dat_i[12]
*28 wb_dat_i[11]
*29 wb_dat_i[10]
*30 wb_dat_i[9]
*31 wb_dat_i[8]
*32 wb_dat_i[7]
*33 wb_dat_i[6]
*34 wb_dat_i[5]
*35 wb_dat_i[4]
*36 wb_dat_i[3]
*37 wb_dat_i[2]
*38 wb_dat_i[1]
*39 wb_dat_i[0]
*40 wb_we_i
*41 wb_stb_i
*42 wb_cyc_i
*43 wb_sel_i[1]
*44 wb_sel_i[0]
*45 pit_o
*46 pit_irq_o
*47 cnt_flag_o
*48 cnt_sync_o
*49 ext_sync_i
*50 VDD
*51 VSS
*52 HFSBUF_283_8
*53 prescale/ctmTdsLR_1_289
*54 wishbone/bus_wait_state_reg
*55 wishbone/addr_latch_reg_2_
*56 wishbone/addr_latch_reg_1_
*57 wishbone/addr_latch_reg_0_
*58 wishbone/U3
*59 wishbone/U4
*60 wishbone/U5
*61 wishbone/U6
*62 wishbone/SGI28_1
*63 wishbone/SGI28_2
*64 wishbone/SGI28_3
*65 wishbone/SGI28_4
*66 wishbone/SGI28_5
*67 wishbone/SGI28_6
*68 wishbone/SGI28_7
*69 wishbone/U12
*70 wishbone/U13
*71 wishbone/U14
*72 wishbone/copt_h_inst_722
*73 regs/copt_h_inst_723
*74 wishbone/copt_h_inst_724
*75 prescale/ctmTdsLR_1_292
*76 prescale/ctmTdsLR_2_293
*77 wishbone/U18
*78 wishbone/U19
*79 wishbone/U20
*80 wishbone/U25
*81 wishbone/U27
*82 wishbone/U29
*83 wishbone/U32
*84 prescale/ctmTdsLR_1_294
*85 wishbone/U22
*86 wishbone/U23
*87 wishbone/U24
*88 wishbone/U26
*89 wishbone/U28
*90 wishbone/U30
*91 prescale/ctmTdsLR_2_295
*92 prescale/ctmTdsLR_1_296
*93 counter/ctmTdsLR_1_297
*94 regs/mod_value_reg_15_
*95 regs/mod_value_reg_14_
*96 regs/mod_value_reg_13_
*97 regs/mod_value_reg_12_
*98 regs/mod_value_reg_11_
*99 regs/mod_value_reg_10_
*100 regs/mod_value_reg_9_
*101 regs/mod_value_reg_8_
*102 regs/mod_value_reg_7_
*103 regs/mod_value_reg_6_
*104 regs/mod_value_reg_5_
*105 regs/mod_value_reg_4_
*106 regs/mod_value_reg_3_
*107 regs/mod_value_reg_2_
*108 regs/mod_value_reg_1_
*109 regs/mod_value_reg_0_
*110 regs/pit_slave_reg
*111 regs/pit_pre_reg_3_
*112 regs/pit_pre_reg_2_
*113 regs/pit_pre_reg_1_
*114 regs/pit_pre_reg_0_
*115 regs/cnt_sync_o_reg
*116 regs/pit_ien_reg
*117 regs/pit_flg_clr_reg
*118 regs/pit_irq_o_reg
*119 regs/U16
*120 regs/U17
*121 regs/U18
*122 regs/U19
*123 regs/U20
*124 regs/U21
*125 regs/U22
*126 regs/U23
*127 regs/U24
*128 regs/U25
*129 regs/U26
*130 regs/U27
*131 regs/U28
*132 regs/U29
*133 regs/U30
*134 regs/U31
*135 regs/U32
*136 regs/U33
*137 regs/U34
*138 regs/U35
*139 regs/U36
*140 regs/U37
*141 regs/U38
*142 regs/U39
*143 regs/U40
*144 regs/U41
*145 regs/U42
*146 regs/U44
*147 regs/U45
*148 regs/U46
*149 regs/U47
*150 regs/U48
*151 regs/U49
*152 regs/U50
*153 regs/U51
*154 regs/U52
*155 regs/U53
*156 regs/U54
*157 counter/ctmTdsLR_2_298
*158 counter/ctmTdsLR_3_299
*159 regs/U6
*160 regs/U7
*161 regs/U8
*162 regs/U9
*163 regs/U10
*164 regs/U11
*165 regs/U12
*166 regs/U13
*167 regs/U14
*168 regs/U15
*169 regs/U43
*170 regs/U55
*171 regs/U56
*172 regs/U57
*173 prescale/cnt_n_reg_14_
*174 prescale/cnt_n_reg_13_
*175 prescale/cnt_n_reg_12_
*176 prescale/cnt_n_reg_11_
*177 prescale/cnt_n_reg_10_
*178 prescale/cnt_n_reg_9_
*179 prescale/cnt_n_reg_8_
*180 prescale/cnt_n_reg_7_
*181 prescale/cnt_n_reg_6_
*182 prescale/cnt_n_reg_5_
*183 prescale/cnt_n_reg_4_
*184 prescale/cnt_n_reg_3_
*185 prescale/cnt_n_reg_2_
*186 prescale/cnt_n_reg_1_
*187 prescale/cnt_n_reg_0_
*188 prescale/U17
*189 prescale/ctmTdsLR_1_300
*190 prescale/U19
*191 prescale/U20
*192 prescale/U21
*193 prescale/U22
*194 prescale/U23
*195 prescale/U24
*196 prescale/U25
*197 prescale/U26
*198 prescale/U27
*199 prescale/U28
*200 ZCTSBUF_1297_581
*201 counter/ctmTdsLR_1_720
*202 prescale/U3
*203 prescale/U4
*204 prescale/U5
*205 prescale/U6
*206 prescale/U7
*207 prescale/U8
*208 prescale/U9
*209 prescale/U10
*210 prescale/U11
*211 prescale/U12
*212 prescale/U13
*213 prescale/U14
*214 prescale/U15
*215 prescale/U16
*216 prescale/U29
*217 prescale/U32
*218 prescale/U33
*219 prescale/U34
*220 prescale/U35
*221 prescale/U36
*222 prescale/U37
*223 counter/ctmTdsLR_2_721
*224 prescale/U39
*225 prescale/U40
*226 prescale/U41
*227 prescale/U42
*228 prescale/U43
*229 prescale/U45
*230 wishbone/copt_h_inst_725
*231 wishbone/copt_h_inst_726
*232 prescale/copt_h_inst_727
*233 prescale/U48
*234 regs/copt_h_inst_728
*235 regs/copt_h_inst_729
*236 regs/copt_h_inst_730
*237 prescale/U51
*238 regs/copt_h_inst_731
*239 regs/copt_h_inst_732
*240 prescale/U53
*241 prescale/U54
*242 prescale/U55
*243 prescale/U56
*244 regs/copt_h_inst_733
*245 prescale/U58
*246 prescale/U59
*247 prescale/U60
*248 prescale/U61
*249 prescale/U62
*250 prescale/U63
*251 prescale/U64
*252 prescale/U65
*253 prescale/add_122_aco/U1_1_13
*254 prescale/add_122_aco/U1_1_12
*255 prescale/add_122_aco/U1_1_11
*256 prescale/add_122_aco/U1_1_10
*257 prescale/add_122_aco/U1_1_9
*258 prescale/add_122_aco/U1_1_8
*259 prescale/add_122_aco/U1_1_7
*260 prescale/add_122_aco/U1_1_6
*261 prescale/add_122_aco/U1_1_5
*262 prescale/add_122_aco/U1_1_4
*263 prescale/add_122_aco/U1_1_3
*264 prescale/add_122_aco/U1_1_2
*265 prescale/add_122_aco/U1_1_1
*266 prescale/add_122_aco/U1
*267 prescale/add_122_aco/U2
*268 counter/cnt_n_reg_0_
*269 counter/cnt_n_reg_15_
*270 counter/cnt_n_reg_1_
*271 counter/cnt_n_reg_2_
*272 counter/cnt_n_reg_3_
*273 counter/cnt_n_reg_4_
*274 counter/cnt_n_reg_5_
*275 counter/cnt_n_reg_6_
*276 counter/cnt_n_reg_7_
*277 counter/cnt_n_reg_8_
*278 counter/cnt_n_reg_9_
*279 counter/cnt_n_reg_10_
*280 counter/cnt_n_reg_11_
*281 counter/cnt_n_reg_12_
*282 counter/cnt_n_reg_13_
*283 counter/cnt_n_reg_14_
*284 counter/cnt_flag_o_reg
*285 counter/pit_o_reg
*286 counter/U11
*287 counter/U12
*288 counter/U13
*289 counter/U14
*290 counter/U15
*291 counter/U16
*292 counter/U17
*293 counter/U18
*294 counter/U19
*295 counter/U20
*296 counter/U21
*297 counter/U22
*298 counter/U23
*299 counter/U24
*300 counter/U25
*301 counter/U26
*302 counter/U27
*303 counter/U28
*304 counter/U29
*305 counter/U30
*306 regs/copt_h_inst_734
*307 counter/U32
*308 counter/U33
*309 counter/U34
*310 counter/U35
*311 counter/U36
*312 regs/copt_h_inst_735
*313 regs/copt_h_inst_736
*314 counter/U5
*315 counter/U6
*316 counter/U7
*317 counter/U8
*318 regs/copt_h_inst_737
*319 counter/U10
*320 counter/U37
*321 regs/copt_h_inst_738
*322 counter/U39
*323 counter/U40
*324 counter/U41
*325 counter/U42
*326 regs/copt_h_inst_739
*327 regs/copt_h_inst_740
*328 counter/U44
*329 regs/copt_h_inst_741
*330 regs/copt_h_inst_742
*331 counter/U46
*332 counter/U47
*333 counter/U48
*334 counter/U49
*335 counter/U50
*336 counter/U51
*337 counter/U52
*338 counter/U53
*339 counter/U54
*340 counter/U55
*341 counter/U56
*342 counter/U57
*343 counter/U58
*344 counter/U59
*345 counter/U60
*346 counter/U61
*347 regs/copt_h_inst_743
*348 regs/copt_h_inst_744
*349 counter/add_76/U1_1_14
*350 counter/add_76/U1_1_13
*351 counter/add_76/U1_1_12
*352 counter/add_76/U1_1_11
*353 counter/add_76/U1_1_10
*354 counter/add_76/U1_1_9
*355 counter/add_76/U1_1_8
*356 counter/add_76/U1_1_7
*357 counter/add_76/U1_1_6
*358 counter/add_76/U1_1_5
*359 counter/add_76/U1_1_4
*360 counter/add_76/U1_1_3
*361 counter/add_76/U1_1_2
*362 counter/add_76/U1_1_1
*363 counter/add_76/U1
*364 counter/add_76/U2
*365 wishbone/SGI28_0
*366 prescale/add_122_aco/copt_h_inst_745
*367 counter/copt_h_inst_746
*368 counter/copt_h_inst_747
*369 counter/copt_h_inst_748
*370 counter/copt_h_inst_749
*371 counter/copt_h_inst_750
*372 counter/copt_h_inst_751
*373 counter/copt_h_inst_752
*374 counter/copt_h_inst_753
*375 counter/copt_h_inst_754
*376 counter/copt_h_inst_755
*377 counter/copt_h_inst_756
*378 counter/copt_h_inst_757
*379 counter/copt_h_inst_758
*380 counter/copt_h_inst_759
*381 counter/copt_h_inst_760
*382 counter/copt_h_inst_761
*383 counter/copt_h_inst_762
*384 counter/copt_h_inst_764
*385 prescale/copt_h_inst_765
*386 regs/copt_h_inst_766
*387 regs/copt_h_inst_767
*388 prescale/copt_h_inst_768
*389 prescale/copt_h_inst_769
*390 prescale/copt_h_inst_770
*391 regs/copt_h_inst_771
*392 prescale/copt_h_inst_772
*393 prescale/copt_h_inst_773
*394 prescale/copt_h_inst_774
*395 regs/copt_h_inst_775
*396 prescale/copt_h_inst_776
*397 prescale/copt_h_inst_777
*398 prescale/copt_h_inst_778
*399 regs/copt_h_inst_779
*400 prescale/copt_h_inst_780
*401 prescale/add_122_aco/copt_h_inst_781
*402 regs/copt_h_inst_782
*403 prescale/add_122_aco/copt_h_inst_783
*404 counter/copt_h_inst_784
*405 prescale/copt_h_inst_785
*406 xofiller!SHFILL1!x100000y100000
*407 xofiller!SHFILL1!x103200y100000
*408 xofiller!SHFILL1!x106400y100000
*409 xofiller!SHFILL1!x109600y100000
*410 xofiller!SHFILL1!x112800y100000
*411 xofiller!SHFILL1!x116000y100000
*412 xofiller!SHFILL1!x119200y100000
*413 xofiller!SHFILL1!x122400y100000
*414 xofiller!SHFILL1!x125600y100000
*415 xofiller!SHFILL1!x128800y100000
*416 xofiller!SHFILL1!x132000y100000
*417 xofiller!SHFILL1!x135200y100000
*418 xofiller!SHFILL1!x138400y100000
*419 xofiller!SHFILL1!x141600y100000
*420 xofiller!SHFILL1!x144800y100000
*421 xofiller!SHFILL1!x148000y100000
*422 xofiller!SHFILL1!x151200y100000
*423 xofiller!SHFILL1!x154400y100000
*424 xofiller!SHFILL1!x157600y100000
*425 xofiller!SHFILL1!x160800y100000
*426 xofiller!SHFILL1!x164000y100000
*427 xofiller!SHFILL1!x167200y100000
*428 xofiller!SHFILL1!x170400y100000
*429 xofiller!SHFILL1!x173600y100000
*430 xofiller!SHFILL1!x176800y100000
*431 xofiller!SHFILL1!x180000y100000
*432 xofiller!SHFILL1!x183200y100000
*433 xofiller!SHFILL1!x186400y100000
*434 xofiller!SHFILL1!x189600y100000
*435 xofiller!SHFILL1!x192800y100000
*436 xofiller!SHFILL1!x196000y100000
*437 xofiller!SHFILL1!x199200y100000
*438 xofiller!SHFILL1!x202400y100000
*439 xofiller!SHFILL1!x205600y100000
*440 xofiller!SHFILL1!x208800y100000
*441 xofiller!SHFILL1!x212000y100000
*442 xofiller!SHFILL1!x215200y100000
*443 xofiller!SHFILL1!x218400y100000
*444 xofiller!SHFILL1!x221600y100000
*445 xofiller!SHFILL1!x224800y100000
*446 xofiller!SHFILL1!x228000y100000
*447 xofiller!SHFILL1!x231200y100000
*448 xofiller!SHFILL1!x234400y100000
*449 xofiller!SHFILL1!x285600y100000
*450 xofiller!SHFILL1!x336800y100000
*451 xofiller!SHFILL1!x340000y100000
*452 xofiller!SHFILL1!x397600y100000
*453 xofiller!SHFILL1!x400800y100000
*454 xofiller!SHFILL1!x404000y100000
*455 xofiller!SHFILL1!x407200y100000
*456 xofiller!SHFILL1!x410400y100000
*457 xofiller!SHFILL1!x413600y100000
*458 xofiller!SHFILL1!x416800y100000
*459 xofiller!SHFILL1!x445600y100000
*460 xofiller!SHFILL1!x448800y100000
*461 xofiller!SHFILL1!x452000y100000
*462 xofiller!SHFILL1!x455200y100000
*463 xofiller!SHFILL1!x477600y100000
*464 xofiller!SHFILL1!x480800y100000
*465 xofiller!SHFILL1!x484000y100000
*466 xofiller!SHFILL1!x487200y100000
*467 xofiller!SHFILL1!x490400y100000
*468 xofiller!SHFILL1!x493600y100000
*469 xofiller!SHFILL1!x496800y100000
*470 xofiller!SHFILL1!x612000y100000
*471 xofiller!SHFILL1!x615200y100000
*472 xofiller!SHFILL1!x618400y100000
*473 xofiller!SHFILL1!x621600y100000
*474 xofiller!SHFILL1!x624800y100000
*475 xofiller!SHFILL1!x628000y100000
*476 xofiller!SHFILL1!x631200y100000
*477 xofiller!SHFILL1!x634400y100000
*478 xofiller!SHFILL1!x637600y100000
*479 xofiller!SHFILL1!x640800y100000
*480 xofiller!SHFILL1!x644000y100000
*481 xofiller!SHFILL1!x647200y100000
*482 xofiller!SHFILL1!x692000y100000
*483 xofiller!SHFILL64!x746400y100000
*484 xofiller!SHFILL1!x951200y100000
*485 xofiller!SHFILL1!x954400y100000
*486 xofiller!SHFILL1!x957600y100000
*487 xofiller!SHFILL1!x960800y100000
*488 xofiller!SHFILL1!x964000y100000
*489 xofiller!SHFILL1!x100000y128800
*490 xofiller!SHFILL1!x103200y128800
*491 xofiller!SHFILL1!x106400y128800
*492 xofiller!SHFILL1!x244000y128800
*493 xofiller!SHFILL1!x247200y128800
*494 xofiller!SHFILL1!x250400y128800
*495 xofiller!SHFILL1!x253600y128800
*496 xofiller!SHFILL1!x256800y128800
*497 xofiller!SHFILL1!x260000y128800
*498 xofiller!SHFILL1!x263200y128800
*499 xofiller!SHFILL1!x266400y128800
*500 xofiller!SHFILL1!x269600y128800
*501 xofiller!SHFILL1!x272800y128800
*502 xofiller!SHFILL1!x276000y128800
*503 xofiller!SHFILL1!x279200y128800
*504 xofiller!SHFILL1!x282400y128800
*505 xofiller!SHFILL1!x285600y128800
*506 xofiller!SHFILL1!x288800y128800
*507 xofiller!SHFILL1!x320800y128800
*508 xofiller!SHFILL1!x324000y128800
*509 xofiller!SHFILL1!x327200y128800
*510 xofiller!SHFILL1!x330400y128800
*511 xofiller!SHFILL1!x333600y128800
*512 xofiller!SHFILL1!x336800y128800
*513 xofiller!SHFILL1!x340000y128800
*514 xofiller!SHFILL1!x343200y128800
*515 xofiller!SHFILL1!x346400y128800
*516 xofiller!SHFILL1!x349600y128800
*517 xofiller!SHFILL1!x352800y128800
*518 xofiller!SHFILL1!x356000y128800
*519 xofiller!SHFILL1!x359200y128800
*520 xofiller!SHFILL1!x362400y128800
*521 xofiller!SHFILL1!x365600y128800
*522 xofiller!SHFILL1!x368800y128800
*523 xofiller!SHFILL1!x372000y128800
*524 xofiller!SHFILL1!x375200y128800
*525 xofiller!SHFILL1!x378400y128800
*526 xofiller!SHFILL1!x381600y128800
*527 xofiller!SHFILL1!x384800y128800
*528 xofiller!SHFILL1!x388000y128800
*529 xofiller!SHFILL1!x528800y128800
*530 xofiller!SHFILL1!x532000y128800
*531 xofiller!SHFILL1!x535200y128800
*532 xofiller!SHFILL1!x538400y128800
*533 xofiller!SHFILL1!x570400y128800
*534 xofiller!SHFILL1!x573600y128800
*535 xofiller!SHFILL1!x576800y128800
*536 xofiller!SHFILL1!x580000y128800
*537 xofiller!SHFILL1!x583200y128800
*538 xofiller!SHFILL1!x586400y128800
*539 xofiller!SHFILL1!x589600y128800
*540 xofiller!SHFILL1!x592800y128800
*541 xofiller!SHFILL1!x596000y128800
*542 xofiller!SHFILL1!x682400y128800
*543 xofiller!SHFILL1!x685600y128800
*544 xofiller!SHFILL1!x688800y128800
*545 xofiller!SHFILL1!x692000y128800
*546 xofiller!SHFILL1!x695200y128800
*547 xofiller!SHFILL1!x698400y128800
*548 xofiller!SHFILL1!x701600y128800
*549 xofiller!SHFILL1!x704800y128800
*550 xofiller!SHFILL1!x708000y128800
*551 xofiller!SHFILL1!x711200y128800
*552 xofiller!SHFILL1!x714400y128800
*553 xofiller!SHFILL1!x717600y128800
*554 xofiller!SHFILL1!x720800y128800
*555 xofiller!SHFILL1!x724000y128800
*556 xofiller!SHFILL1!x727200y128800
*557 xofiller!SHFILL1!x730400y128800
*558 xofiller!SHFILL1!x733600y128800
*559 xofiller!SHFILL1!x736800y128800
*560 xofiller!SHFILL1!x791200y128800
*561 xofiller!SHFILL1!x896800y128800
*562 xofiller!SHFILL1!x900000y128800
*563 xofiller!SHFILL1!x903200y128800
*564 xofiller!SHFILL1!x906400y128800
*565 xofiller!SHFILL1!x909600y128800
*566 xofiller!SHFILL1!x964000y128800
*567 xofiller!SHFILL1!x154400y157600
*568 xofiller!SHFILL1!x157600y157600
*569 xofiller!SHFILL1!x160800y157600
*570 xofiller!SHFILL1!x164000y157600
*571 xofiller!SHFILL1!x167200y157600
*572 xofiller!SHFILL1!x221600y157600
*573 xofiller!SHFILL1!x250400y157600
*574 xofiller!SHFILL1!x253600y157600
*575 xofiller!SHFILL1!x256800y157600
*576 xofiller!SHFILL1!x260000y157600
*577 xofiller!SHFILL1!x263200y157600
*578 xofiller!SHFILL1!x314400y157600
*579 xofiller!SHFILL1!x317600y157600
*580 xofiller!SHFILL1!x436000y157600
*581 xofiller!SHFILL1!x439200y157600
*582 xofiller!SHFILL1!x490400y157600
*583 xofiller!SHFILL1!x493600y157600
*584 xofiller!SHFILL1!x496800y157600
*585 xofiller!SHFILL1!x541600y157600
*586 xofiller!SHFILL1!x544800y157600
*587 xofiller!SHFILL1!x548000y157600
*588 xofiller!SHFILL1!x551200y157600
*589 xofiller!SHFILL1!x554400y157600
*590 xofiller!SHFILL1!x557600y157600
*591 xofiller!SHFILL1!x560800y157600
*592 xofiller!SHFILL1!x564000y157600
*593 xofiller!SHFILL1!x567200y157600
*594 xofiller!SHFILL1!x570400y157600
*595 xofiller!SHFILL1!x573600y157600
*596 xofiller!SHFILL1!x576800y157600
*597 xofiller!SHFILL1!x621600y157600
*598 xofiller!SHFILL1!x624800y157600
*599 xofiller!SHFILL1!x628000y157600
*600 xofiller!SHFILL1!x631200y157600
*601 xofiller!SHFILL1!x634400y157600
*602 xofiller!SHFILL1!x637600y157600
*603 xofiller!SHFILL1!x640800y157600
*604 xofiller!SHFILL1!x644000y157600
*605 xofiller!SHFILL1!x647200y157600
*606 xofiller!SHFILL1!x650400y157600
*607 xofiller!SHFILL1!x653600y157600
*608 xofiller!SHFILL1!x656800y157600
*609 xofiller!SHFILL1!x660000y157600
*610 xofiller!SHFILL1!x663200y157600
*611 xofiller!SHFILL1!x666400y157600
*612 xofiller!SHFILL1!x669600y157600
*613 xofiller!SHFILL1!x672800y157600
*614 xofiller!SHFILL1!x839200y157600
*615 xofiller!SHFILL1!x842400y157600
*616 xofiller!SHFILL1!x845600y157600
*617 xofiller!SHFILL1!x848800y157600
*618 xofiller!SHFILL1!x852000y157600
*619 xofiller!SHFILL1!x855200y157600
*620 xofiller!SHFILL1!x858400y157600
*621 xofiller!SHFILL1!x861600y157600
*622 xofiller!SHFILL1!x864800y157600
*623 xofiller!SHFILL1!x868000y157600
*624 xofiller!SHFILL1!x871200y157600
*625 xofiller!SHFILL1!x874400y157600
*626 xofiller!SHFILL1!x877600y157600
*627 xofiller!SHFILL1!x880800y157600
*628 xofiller!SHFILL1!x884000y157600
*629 xofiller!SHFILL1!x887200y157600
*630 xofiller!SHFILL1!x890400y157600
*631 xofiller!SHFILL1!x893600y157600
*632 xofiller!SHFILL1!x896800y157600
*633 xofiller!SHFILL1!x900000y157600
*634 xofiller!SHFILL1!x903200y157600
*635 xofiller!SHFILL1!x906400y157600
*636 xofiller!SHFILL1!x909600y157600
*637 xofiller!SHFILL1!x912800y157600
*638 xofiller!SHFILL1!x916000y157600
*639 xofiller!SHFILL1!x919200y157600
*640 xofiller!SHFILL1!x922400y157600
*641 xofiller!SHFILL1!x925600y157600
*642 xofiller!SHFILL1!x928800y157600
*643 xofiller!SHFILL1!x932000y157600
*644 xofiller!SHFILL1!x935200y157600
*645 xofiller!SHFILL1!x938400y157600
*646 xofiller!SHFILL1!x941600y157600
*647 xofiller!SHFILL1!x944800y157600
*648 xofiller!SHFILL1!x948000y157600
*649 xofiller!SHFILL1!x951200y157600
*650 xofiller!SHFILL1!x954400y157600
*651 xofiller!SHFILL1!x957600y157600
*652 xofiller!SHFILL1!x960800y157600
*653 xofiller!SHFILL1!x964000y157600
*654 xofiller!SHFILL1!x100000y186400
*655 xofiller!SHFILL1!x103200y186400
*656 xofiller!SHFILL1!x106400y186400
*657 xofiller!SHFILL1!x109600y186400
*658 xofiller!SHFILL1!x112800y186400
*659 xofiller!SHFILL1!x116000y186400
*660 xofiller!SHFILL1!x119200y186400
*661 xofiller!SHFILL1!x122400y186400
*662 xofiller!SHFILL1!x125600y186400
*663 xofiller!SHFILL1!x128800y186400
*664 xofiller!SHFILL1!x132000y186400
*665 xofiller!SHFILL1!x189600y186400
*666 xofiller!SHFILL1!x192800y186400
*667 xofiller!SHFILL1!x196000y186400
*668 xofiller!SHFILL1!x199200y186400
*669 xofiller!SHFILL1!x202400y186400
*670 xofiller!SHFILL1!x205600y186400
*671 xofiller!SHFILL1!x208800y186400
*672 xofiller!SHFILL1!x212000y186400
*673 xofiller!SHFILL1!x292000y186400
*674 xofiller!SHFILL1!x295200y186400
*675 xofiller!SHFILL1!x394400y186400
*676 xofiller!SHFILL1!x397600y186400
*677 xofiller!SHFILL1!x400800y186400
*678 xofiller!SHFILL1!x404000y186400
*679 xofiller!SHFILL1!x432800y186400
*680 xofiller!SHFILL1!x436000y186400
*681 xofiller!SHFILL1!x439200y186400
*682 xofiller!SHFILL1!x442400y186400
*683 xofiller!SHFILL1!x445600y186400
*684 xofiller!SHFILL1!x448800y186400
*685 xofiller!SHFILL1!x452000y186400
*686 xofiller!SHFILL1!x455200y186400
*687 xofiller!SHFILL1!x458400y186400
*688 xofiller!SHFILL1!x461600y186400
*689 xofiller!SHFILL1!x464800y186400
*690 xofiller!SHFILL1!x468000y186400
*691 xofiller!SHFILL1!x471200y186400
*692 xofiller!SHFILL1!x474400y186400
*693 xofiller!SHFILL1!x477600y186400
*694 xofiller!SHFILL1!x480800y186400
*695 xofiller!SHFILL1!x484000y186400
*696 xofiller!SHFILL1!x487200y186400
*697 xofiller!SHFILL1!x490400y186400
*698 xofiller!SHFILL1!x493600y186400
*699 xofiller!SHFILL1!x496800y186400
*700 xofiller!SHFILL1!x500000y186400
*701 xofiller!SHFILL1!x503200y186400
*702 xofiller!SHFILL1!x506400y186400
*703 xofiller!SHFILL1!x509600y186400
*704 xofiller!SHFILL1!x512800y186400
*705 xofiller!SHFILL1!x516000y186400
*706 xofiller!SHFILL1!x519200y186400
*707 xofiller!SHFILL1!x589600y186400
*708 xofiller!SHFILL1!x592800y186400
*709 xofiller!SHFILL1!x596000y186400
*710 xofiller!SHFILL1!x599200y186400
*711 xofiller!SHFILL1!x602400y186400
*712 xofiller!SHFILL1!x605600y186400
*713 xofiller!SHFILL1!x608800y186400
*714 xofiller!SHFILL1!x612000y186400
*715 xofiller!SHFILL1!x615200y186400
*716 xofiller!SHFILL1!x618400y186400
*717 xofiller!SHFILL1!x621600y186400
*718 xofiller!SHFILL1!x624800y186400
*719 xofiller!SHFILL1!x730400y186400
*720 xofiller!SHFILL1!x733600y186400
*721 xofiller!SHFILL1!x736800y186400
*722 xofiller!SHFILL1!x740000y186400
*723 xofiller!SHFILL1!x743200y186400
*724 xofiller!SHFILL1!x746400y186400
*725 xofiller!SHFILL1!x749600y186400
*726 xofiller!SHFILL1!x752800y186400
*727 xofiller!SHFILL1!x756000y186400
*728 xofiller!SHFILL1!x759200y186400
*729 xofiller!SHFILL1!x762400y186400
*730 xofiller!SHFILL1!x765600y186400
*731 xofiller!SHFILL1!x768800y186400
*732 xofiller!SHFILL1!x772000y186400
*733 xofiller!SHFILL1!x775200y186400
*734 xofiller!SHFILL1!x778400y186400
*735 xofiller!SHFILL1!x781600y186400
*736 xofiller!SHFILL1!x836000y186400
*737 xofiller!SHFILL1!x839200y186400
*738 xofiller!SHFILL1!x842400y186400
*739 xofiller!SHFILL1!x957600y186400
*740 xofiller!SHFILL1!x960800y186400
*741 xofiller!SHFILL1!x964000y186400
*742 xofiller!SHFILL1!x154400y215200
*743 xofiller!SHFILL1!x157600y215200
*744 xofiller!SHFILL1!x160800y215200
*745 xofiller!SHFILL1!x164000y215200
*746 xofiller!SHFILL1!x167200y215200
*747 xofiller!SHFILL1!x170400y215200
*748 xofiller!SHFILL1!x173600y215200
*749 xofiller!SHFILL1!x176800y215200
*750 xofiller!SHFILL1!x231200y215200
*751 xofiller!SHFILL1!x234400y215200
*752 xofiller!SHFILL1!x237600y215200
*753 xofiller!SHFILL1!x240800y215200
*754 xofiller!SHFILL1!x244000y215200
*755 xofiller!SHFILL1!x247200y215200
*756 xofiller!SHFILL1!x250400y215200
*757 xofiller!SHFILL1!x253600y215200
*758 xofiller!SHFILL1!x256800y215200
*759 xofiller!SHFILL1!x260000y215200
*760 xofiller!SHFILL1!x263200y215200
*761 xofiller!SHFILL1!x266400y215200
*762 xofiller!SHFILL1!x269600y215200
*763 xofiller!SHFILL1!x272800y215200
*764 xofiller!SHFILL1!x276000y215200
*765 xofiller!SHFILL1!x327200y215200
*766 xofiller!SHFILL1!x330400y215200
*767 xofiller!SHFILL1!x333600y215200
*768 xofiller!SHFILL1!x336800y215200
*769 xofiller!SHFILL1!x340000y215200
*770 xofiller!SHFILL1!x343200y215200
*771 xofiller!SHFILL1!x346400y215200
*772 xofiller!SHFILL1!x349600y215200
*773 xofiller!SHFILL1!x352800y215200
*774 xofiller!SHFILL1!x356000y215200
*775 xofiller!SHFILL1!x359200y215200
*776 xofiller!SHFILL1!x362400y215200
*777 xofiller!SHFILL1!x365600y215200
*778 xofiller!SHFILL1!x368800y215200
*779 xofiller!SHFILL1!x372000y215200
*780 xofiller!SHFILL1!x375200y215200
*781 xofiller!SHFILL1!x378400y215200
*782 xofiller!SHFILL1!x400800y215200
*783 xofiller!SHFILL1!x404000y215200
*784 xofiller!SHFILL1!x407200y215200
*785 xofiller!SHFILL1!x410400y215200
*786 xofiller!SHFILL1!x413600y215200
*787 xofiller!SHFILL1!x442400y215200
*788 xofiller!SHFILL1!x445600y215200
*789 xofiller!SHFILL1!x448800y215200
*790 xofiller!SHFILL1!x452000y215200
*791 xofiller!SHFILL1!x525600y215200
*792 xofiller!SHFILL1!x528800y215200
*793 xofiller!SHFILL1!x532000y215200
*794 xofiller!SHFILL1!x647200y215200
*795 xofiller!SHFILL1!x650400y215200
*796 xofiller!SHFILL1!x653600y215200
*797 xofiller!SHFILL1!x656800y215200
*798 xofiller!SHFILL1!x679200y215200
*799 xofiller!SHFILL1!x682400y215200
*800 xofiller!SHFILL1!x685600y215200
*801 xofiller!SHFILL1!x688800y215200
*802 xofiller!SHFILL1!x692000y215200
*803 xofiller!SHFILL1!x695200y215200
*804 xofiller!SHFILL1!x698400y215200
*805 xofiller!SHFILL1!x701600y215200
*806 xofiller!SHFILL1!x704800y215200
*807 xofiller!SHFILL1!x708000y215200
*808 xofiller!SHFILL1!x711200y215200
*809 xofiller!SHFILL1!x714400y215200
*810 xofiller!SHFILL1!x717600y215200
*811 xofiller!SHFILL1!x720800y215200
*812 xofiller!SHFILL1!x724000y215200
*813 xofiller!SHFILL1!x839200y215200
*814 xofiller!SHFILL1!x842400y215200
*815 xofiller!SHFILL1!x845600y215200
*816 xofiller!SHFILL1!x848800y215200
*817 xofiller!SHFILL1!x852000y215200
*818 xofiller!SHFILL1!x855200y215200
*819 xofiller!SHFILL1!x858400y215200
*820 xofiller!SHFILL1!x861600y215200
*821 xofiller!SHFILL1!x864800y215200
*822 xofiller!SHFILL1!x868000y215200
*823 xofiller!SHFILL1!x871200y215200
*824 xofiller!SHFILL1!x874400y215200
*825 xofiller!SHFILL1!x877600y215200
*826 xofiller!SHFILL1!x880800y215200
*827 xofiller!SHFILL1!x884000y215200
*828 xofiller!SHFILL1!x887200y215200
*829 xofiller!SHFILL1!x890400y215200
*830 xofiller!SHFILL1!x893600y215200
*831 xofiller!SHFILL1!x896800y215200
*832 xofiller!SHFILL1!x900000y215200
*833 xofiller!SHFILL1!x903200y215200
*834 xofiller!SHFILL1!x906400y215200
*835 xofiller!SHFILL1!x909600y215200
*836 xofiller!SHFILL1!x964000y215200
*837 xofiller!SHFILL1!x100000y244000
*838 xofiller!SHFILL1!x103200y244000
*839 xofiller!SHFILL1!x106400y244000
*840 xofiller!SHFILL1!x109600y244000
*841 xofiller!SHFILL1!x112800y244000
*842 xofiller!SHFILL1!x116000y244000
*843 xofiller!SHFILL1!x119200y244000
*844 xofiller!SHFILL1!x122400y244000
*845 xofiller!SHFILL1!x125600y244000
*846 xofiller!SHFILL1!x128800y244000
*847 xofiller!SHFILL1!x132000y244000
*848 xofiller!SHFILL1!x135200y244000
*849 xofiller!SHFILL1!x138400y244000
*850 xofiller!SHFILL1!x141600y244000
*851 xofiller!SHFILL1!x144800y244000
*852 xofiller!SHFILL1!x148000y244000
*853 xofiller!SHFILL1!x151200y244000
*854 xofiller!SHFILL1!x154400y244000
*855 xofiller!SHFILL1!x157600y244000
*856 xofiller!SHFILL1!x160800y244000
*857 xofiller!SHFILL1!x189600y244000
*858 xofiller!SHFILL1!x192800y244000
*859 xofiller!SHFILL1!x196000y244000
*860 xofiller!SHFILL1!x224800y244000
*861 xofiller!SHFILL1!x228000y244000
*862 xofiller!SHFILL1!x282400y244000
*863 xofiller!SHFILL1!x285600y244000
*864 xofiller!SHFILL1!x288800y244000
*865 xofiller!SHFILL1!x292000y244000
*866 xofiller!SHFILL1!x295200y244000
*867 xofiller!SHFILL1!x298400y244000
*868 xofiller!SHFILL1!x301600y244000
*869 xofiller!SHFILL1!x304800y244000
*870 xofiller!SHFILL1!x308000y244000
*871 xofiller!SHFILL1!x311200y244000
*872 xofiller!SHFILL1!x314400y244000
*873 xofiller!SHFILL1!x317600y244000
*874 xofiller!SHFILL1!x320800y244000
*875 xofiller!SHFILL1!x324000y244000
*876 xofiller!SHFILL1!x500000y244000
*877 xofiller!SHFILL1!x528800y244000
*878 xofiller!SHFILL1!x532000y244000
*879 xofiller!SHFILL1!x535200y244000
*880 xofiller!SHFILL1!x957600y244000
*881 xofiller!SHFILL1!x960800y244000
*882 xofiller!SHFILL1!x964000y244000
*883 xofiller!SHFILL1!x151200y272800
*884 xofiller!SHFILL1!x154400y272800
*885 xofiller!SHFILL1!x157600y272800
*886 xofiller!SHFILL1!x160800y272800
*887 xofiller!SHFILL1!x164000y272800
*888 xofiller!SHFILL1!x167200y272800
*889 xofiller!SHFILL1!x170400y272800
*890 xofiller!SHFILL1!x173600y272800
*891 xofiller!SHFILL1!x176800y272800
*892 xofiller!SHFILL1!x404000y272800
*893 xofiller!SHFILL1!x407200y272800
*894 xofiller!SHFILL1!x490400y272800
*895 xofiller!SHFILL1!x493600y272800
*896 xofiller!SHFILL1!x548000y272800
*897 xofiller!SHFILL1!x551200y272800
*898 xofiller!SHFILL1!x554400y272800
*899 xofiller!SHFILL1!x557600y272800
*900 xofiller!SHFILL1!x560800y272800
*901 xofiller!SHFILL1!x564000y272800
*902 xofiller!SHFILL1!x567200y272800
*903 xofiller!SHFILL1!x570400y272800
*904 xofiller!SHFILL1!x573600y272800
*905 xofiller!SHFILL1!x576800y272800
*906 xofiller!SHFILL1!x580000y272800
*907 xofiller!SHFILL1!x583200y272800
*908 xofiller!SHFILL1!x586400y272800
*909 xofiller!SHFILL1!x589600y272800
*910 xofiller!SHFILL1!x592800y272800
*911 xofiller!SHFILL1!x596000y272800
*912 xofiller!SHFILL1!x599200y272800
*913 xofiller!SHFILL1!x602400y272800
*914 xofiller!SHFILL1!x605600y272800
*915 xofiller!SHFILL1!x608800y272800
*916 xofiller!SHFILL1!x612000y272800
*917 xofiller!SHFILL1!x615200y272800
*918 xofiller!SHFILL1!x618400y272800
*919 xofiller!SHFILL1!x621600y272800
*920 xofiller!SHFILL1!x624800y272800
*921 xofiller!SHFILL1!x628000y272800
*922 xofiller!SHFILL1!x631200y272800
*923 xofiller!SHFILL1!x634400y272800
*924 xofiller!SHFILL1!x749600y272800
*925 xofiller!SHFILL1!x752800y272800
*926 xofiller!SHFILL1!x756000y272800
*927 xofiller!SHFILL1!x759200y272800
*928 xofiller!SHFILL1!x762400y272800
*929 xofiller!SHFILL1!x765600y272800
*930 xofiller!SHFILL1!x768800y272800
*931 xofiller!SHFILL1!x772000y272800
*932 xofiller!SHFILL1!x775200y272800
*933 xofiller!SHFILL1!x778400y272800
*934 xofiller!SHFILL1!x781600y272800
*935 xofiller!SHFILL1!x784800y272800
*936 xofiller!SHFILL1!x788000y272800
*937 xofiller!SHFILL1!x791200y272800
*938 xofiller!SHFILL1!x845600y272800
*939 xofiller!SHFILL1!x848800y272800
*940 xofiller!SHFILL1!x852000y272800
*941 xofiller!SHFILL1!x855200y272800
*942 xofiller!SHFILL1!x858400y272800
*943 xofiller!SHFILL1!x861600y272800
*944 xofiller!SHFILL1!x864800y272800
*945 xofiller!SHFILL1!x868000y272800
*946 xofiller!SHFILL1!x912800y272800
*947 xofiller!SHFILL1!x100000y301600
*948 xofiller!SHFILL1!x103200y301600
*949 xofiller!SHFILL1!x106400y301600
*950 xofiller!SHFILL1!x135200y301600
*951 xofiller!SHFILL1!x138400y301600
*952 xofiller!SHFILL1!x141600y301600
*953 xofiller!SHFILL1!x144800y301600
*954 xofiller!SHFILL1!x199200y301600
*955 xofiller!SHFILL1!x202400y301600
*956 xofiller!SHFILL1!x205600y301600
*957 xofiller!SHFILL1!x208800y301600
*958 xofiller!SHFILL1!x212000y301600
*959 xofiller!SHFILL1!x215200y301600
*960 xofiller!SHFILL1!x218400y301600
*961 xofiller!SHFILL1!x221600y301600
*962 xofiller!SHFILL1!x224800y301600
*963 xofiller!SHFILL1!x228000y301600
*964 xofiller!SHFILL1!x231200y301600
*965 xofiller!SHFILL1!x234400y301600
*966 xofiller!SHFILL1!x272800y301600
*967 xofiller!SHFILL1!x276000y301600
*968 xofiller!SHFILL1!x279200y301600
*969 xofiller!SHFILL1!x282400y301600
*970 xofiller!SHFILL1!x285600y301600
*971 xofiller!SHFILL1!x288800y301600
*972 xofiller!SHFILL1!x292000y301600
*973 xofiller!SHFILL1!x295200y301600